*SPEF "ieee 1481-1999"
*DESIGN "user_project_wrapper"
*DATE "11:11:11 Fri 11 11, 1111"
*VENDOR "OpenRCX"
*PROGRAM "Parallel Extraction"
*VERSION "1.0"
*DESIGN_FLOW "NAME_SCOPE LOCAL" "PIN_CAP NONE"
*DIVIDER /
*DELIMITER :
*BUS_DELIMITER []
*T_UNIT 1 NS
*C_UNIT 1 PF
*R_UNIT 1 OHM
*L_UNIT 1 HENRY

*NAME_MAP
*1 io_in[0]
*2 io_in[10]
*3 io_in[11]
*4 io_in[12]
*5 io_in[13]
*6 io_in[14]
*7 io_in[15]
*8 io_in[16]
*9 io_in[17]
*10 io_in[18]
*11 io_in[19]
*12 io_in[1]
*13 io_in[20]
*14 io_in[21]
*15 io_in[22]
*16 io_in[23]
*17 io_in[24]
*18 io_in[25]
*19 io_in[26]
*20 io_in[27]
*21 io_in[28]
*22 io_in[29]
*23 io_in[2]
*24 io_in[30]
*25 io_in[31]
*26 io_in[32]
*27 io_in[33]
*28 io_in[34]
*29 io_in[35]
*30 io_in[36]
*31 io_in[37]
*32 io_in[3]
*33 io_in[4]
*34 io_in[5]
*35 io_in[6]
*36 io_in[7]
*37 io_in[8]
*38 io_in[9]
*39 io_oeb[0]
*40 io_oeb[10]
*41 io_oeb[11]
*42 io_oeb[12]
*43 io_oeb[13]
*44 io_oeb[14]
*45 io_oeb[15]
*46 io_oeb[16]
*47 io_oeb[17]
*48 io_oeb[18]
*49 io_oeb[19]
*50 io_oeb[1]
*51 io_oeb[20]
*52 io_oeb[21]
*53 io_oeb[22]
*54 io_oeb[23]
*55 io_oeb[24]
*56 io_oeb[25]
*57 io_oeb[26]
*58 io_oeb[27]
*59 io_oeb[28]
*60 io_oeb[29]
*61 io_oeb[2]
*62 io_oeb[30]
*63 io_oeb[31]
*64 io_oeb[32]
*65 io_oeb[33]
*66 io_oeb[34]
*67 io_oeb[35]
*68 io_oeb[36]
*69 io_oeb[37]
*70 io_oeb[3]
*71 io_oeb[4]
*72 io_oeb[5]
*73 io_oeb[6]
*74 io_oeb[7]
*75 io_oeb[8]
*76 io_oeb[9]
*77 io_out[0]
*78 io_out[10]
*79 io_out[11]
*80 io_out[12]
*81 io_out[13]
*82 io_out[14]
*83 io_out[15]
*84 io_out[16]
*85 io_out[17]
*86 io_out[18]
*87 io_out[19]
*88 io_out[1]
*89 io_out[20]
*90 io_out[21]
*91 io_out[22]
*92 io_out[23]
*93 io_out[24]
*94 io_out[25]
*95 io_out[26]
*96 io_out[27]
*97 io_out[28]
*98 io_out[29]
*99 io_out[2]
*100 io_out[30]
*101 io_out[31]
*102 io_out[32]
*103 io_out[33]
*104 io_out[34]
*105 io_out[35]
*106 io_out[36]
*107 io_out[37]
*108 io_out[3]
*109 io_out[4]
*110 io_out[5]
*111 io_out[6]
*112 io_out[7]
*113 io_out[8]
*114 io_out[9]
*115 la_data_in[0]
*116 la_data_in[10]
*117 la_data_in[11]
*118 la_data_in[12]
*119 la_data_in[13]
*120 la_data_in[14]
*121 la_data_in[15]
*122 la_data_in[16]
*123 la_data_in[17]
*124 la_data_in[18]
*125 la_data_in[19]
*126 la_data_in[1]
*127 la_data_in[20]
*128 la_data_in[21]
*129 la_data_in[22]
*130 la_data_in[23]
*131 la_data_in[24]
*132 la_data_in[25]
*133 la_data_in[26]
*134 la_data_in[27]
*135 la_data_in[28]
*136 la_data_in[29]
*137 la_data_in[2]
*138 la_data_in[30]
*139 la_data_in[31]
*140 la_data_in[32]
*141 la_data_in[33]
*142 la_data_in[34]
*143 la_data_in[35]
*144 la_data_in[36]
*145 la_data_in[37]
*146 la_data_in[38]
*147 la_data_in[39]
*148 la_data_in[3]
*149 la_data_in[40]
*150 la_data_in[41]
*151 la_data_in[42]
*152 la_data_in[43]
*153 la_data_in[44]
*154 la_data_in[45]
*155 la_data_in[46]
*156 la_data_in[47]
*157 la_data_in[48]
*158 la_data_in[49]
*159 la_data_in[4]
*160 la_data_in[50]
*161 la_data_in[51]
*162 la_data_in[52]
*163 la_data_in[53]
*164 la_data_in[54]
*165 la_data_in[55]
*166 la_data_in[56]
*167 la_data_in[57]
*168 la_data_in[58]
*169 la_data_in[59]
*170 la_data_in[5]
*171 la_data_in[60]
*172 la_data_in[61]
*173 la_data_in[62]
*174 la_data_in[63]
*175 la_data_in[6]
*176 la_data_in[7]
*177 la_data_in[8]
*178 la_data_in[9]
*179 la_data_out[0]
*180 la_data_out[10]
*181 la_data_out[11]
*182 la_data_out[12]
*183 la_data_out[13]
*184 la_data_out[14]
*185 la_data_out[15]
*186 la_data_out[16]
*187 la_data_out[17]
*188 la_data_out[18]
*189 la_data_out[19]
*190 la_data_out[1]
*191 la_data_out[20]
*192 la_data_out[21]
*193 la_data_out[22]
*194 la_data_out[23]
*195 la_data_out[24]
*196 la_data_out[25]
*197 la_data_out[26]
*198 la_data_out[27]
*199 la_data_out[28]
*200 la_data_out[29]
*201 la_data_out[2]
*202 la_data_out[30]
*203 la_data_out[31]
*204 la_data_out[32]
*205 la_data_out[33]
*206 la_data_out[34]
*207 la_data_out[35]
*208 la_data_out[36]
*209 la_data_out[37]
*210 la_data_out[38]
*211 la_data_out[39]
*212 la_data_out[3]
*213 la_data_out[40]
*214 la_data_out[41]
*215 la_data_out[42]
*216 la_data_out[43]
*217 la_data_out[44]
*218 la_data_out[45]
*219 la_data_out[46]
*220 la_data_out[47]
*221 la_data_out[48]
*222 la_data_out[49]
*223 la_data_out[4]
*224 la_data_out[50]
*225 la_data_out[51]
*226 la_data_out[52]
*227 la_data_out[53]
*228 la_data_out[54]
*229 la_data_out[55]
*230 la_data_out[56]
*231 la_data_out[57]
*232 la_data_out[58]
*233 la_data_out[59]
*234 la_data_out[5]
*235 la_data_out[60]
*236 la_data_out[61]
*237 la_data_out[62]
*238 la_data_out[63]
*239 la_data_out[6]
*240 la_data_out[7]
*241 la_data_out[8]
*242 la_data_out[9]
*243 la_oenb[0]
*244 la_oenb[10]
*245 la_oenb[11]
*246 la_oenb[12]
*247 la_oenb[13]
*248 la_oenb[14]
*249 la_oenb[15]
*250 la_oenb[16]
*251 la_oenb[17]
*252 la_oenb[18]
*253 la_oenb[19]
*254 la_oenb[1]
*255 la_oenb[20]
*256 la_oenb[21]
*257 la_oenb[22]
*258 la_oenb[23]
*259 la_oenb[24]
*260 la_oenb[25]
*261 la_oenb[26]
*262 la_oenb[27]
*263 la_oenb[28]
*264 la_oenb[29]
*265 la_oenb[2]
*266 la_oenb[30]
*267 la_oenb[31]
*268 la_oenb[32]
*269 la_oenb[33]
*270 la_oenb[34]
*271 la_oenb[35]
*272 la_oenb[36]
*273 la_oenb[37]
*274 la_oenb[38]
*275 la_oenb[39]
*276 la_oenb[3]
*277 la_oenb[40]
*278 la_oenb[41]
*279 la_oenb[42]
*280 la_oenb[43]
*281 la_oenb[44]
*282 la_oenb[45]
*283 la_oenb[46]
*284 la_oenb[47]
*285 la_oenb[48]
*286 la_oenb[49]
*287 la_oenb[4]
*288 la_oenb[50]
*289 la_oenb[51]
*290 la_oenb[52]
*291 la_oenb[53]
*292 la_oenb[54]
*293 la_oenb[55]
*294 la_oenb[56]
*295 la_oenb[57]
*296 la_oenb[58]
*297 la_oenb[59]
*298 la_oenb[5]
*299 la_oenb[60]
*300 la_oenb[61]
*301 la_oenb[62]
*302 la_oenb[63]
*303 la_oenb[6]
*304 la_oenb[7]
*305 la_oenb[8]
*306 la_oenb[9]
*307 user_clock2
*308 user_irq[0]
*309 user_irq[1]
*310 user_irq[2]
*313 wb_clk_i
*314 wb_rst_i
*315 wbs_ack_o
*316 wbs_adr_i[0]
*317 wbs_adr_i[10]
*318 wbs_adr_i[11]
*319 wbs_adr_i[12]
*320 wbs_adr_i[13]
*321 wbs_adr_i[14]
*322 wbs_adr_i[15]
*323 wbs_adr_i[16]
*324 wbs_adr_i[17]
*325 wbs_adr_i[18]
*326 wbs_adr_i[19]
*327 wbs_adr_i[1]
*328 wbs_adr_i[20]
*329 wbs_adr_i[21]
*330 wbs_adr_i[22]
*331 wbs_adr_i[23]
*332 wbs_adr_i[24]
*333 wbs_adr_i[25]
*334 wbs_adr_i[26]
*335 wbs_adr_i[27]
*336 wbs_adr_i[28]
*337 wbs_adr_i[29]
*338 wbs_adr_i[2]
*339 wbs_adr_i[30]
*340 wbs_adr_i[31]
*341 wbs_adr_i[3]
*342 wbs_adr_i[4]
*343 wbs_adr_i[5]
*344 wbs_adr_i[6]
*345 wbs_adr_i[7]
*346 wbs_adr_i[8]
*347 wbs_adr_i[9]
*348 wbs_cyc_i
*349 wbs_dat_i[0]
*350 wbs_dat_i[10]
*351 wbs_dat_i[11]
*352 wbs_dat_i[12]
*353 wbs_dat_i[13]
*354 wbs_dat_i[14]
*355 wbs_dat_i[15]
*356 wbs_dat_i[16]
*357 wbs_dat_i[17]
*358 wbs_dat_i[18]
*359 wbs_dat_i[19]
*360 wbs_dat_i[1]
*361 wbs_dat_i[20]
*362 wbs_dat_i[21]
*363 wbs_dat_i[22]
*364 wbs_dat_i[23]
*365 wbs_dat_i[24]
*366 wbs_dat_i[25]
*367 wbs_dat_i[26]
*368 wbs_dat_i[27]
*369 wbs_dat_i[28]
*370 wbs_dat_i[29]
*371 wbs_dat_i[2]
*372 wbs_dat_i[30]
*373 wbs_dat_i[31]
*374 wbs_dat_i[3]
*375 wbs_dat_i[4]
*376 wbs_dat_i[5]
*377 wbs_dat_i[6]
*378 wbs_dat_i[7]
*379 wbs_dat_i[8]
*380 wbs_dat_i[9]
*381 wbs_dat_o[0]
*382 wbs_dat_o[10]
*383 wbs_dat_o[11]
*384 wbs_dat_o[12]
*385 wbs_dat_o[13]
*386 wbs_dat_o[14]
*387 wbs_dat_o[15]
*388 wbs_dat_o[16]
*389 wbs_dat_o[17]
*390 wbs_dat_o[18]
*391 wbs_dat_o[19]
*392 wbs_dat_o[1]
*393 wbs_dat_o[20]
*394 wbs_dat_o[21]
*395 wbs_dat_o[22]
*396 wbs_dat_o[23]
*397 wbs_dat_o[24]
*398 wbs_dat_o[25]
*399 wbs_dat_o[26]
*400 wbs_dat_o[27]
*401 wbs_dat_o[28]
*402 wbs_dat_o[29]
*403 wbs_dat_o[2]
*404 wbs_dat_o[30]
*405 wbs_dat_o[31]
*406 wbs_dat_o[3]
*407 wbs_dat_o[4]
*408 wbs_dat_o[5]
*409 wbs_dat_o[6]
*410 wbs_dat_o[7]
*411 wbs_dat_o[8]
*412 wbs_dat_o[9]
*413 wbs_sel_i[0]
*414 wbs_sel_i[1]
*415 wbs_sel_i[2]
*416 wbs_sel_i[3]
*417 wbs_stb_i
*418 wbs_we_i
*419 mprj

*PORTS
io_in[0] I
io_in[10] I
io_in[11] I
io_in[12] I
io_in[13] I
io_in[14] I
io_in[15] I
io_in[16] I
io_in[17] I
io_in[18] I
io_in[19] I
io_in[1] I
io_in[20] I
io_in[21] I
io_in[22] I
io_in[23] I
io_in[24] I
io_in[25] I
io_in[26] I
io_in[27] I
io_in[28] I
io_in[29] I
io_in[2] I
io_in[30] I
io_in[31] I
io_in[32] I
io_in[33] I
io_in[34] I
io_in[35] I
io_in[36] I
io_in[37] I
io_in[3] I
io_in[4] I
io_in[5] I
io_in[6] I
io_in[7] I
io_in[8] I
io_in[9] I
io_oeb[0] O
io_oeb[10] O
io_oeb[11] O
io_oeb[12] O
io_oeb[13] O
io_oeb[14] O
io_oeb[15] O
io_oeb[16] O
io_oeb[17] O
io_oeb[18] O
io_oeb[19] O
io_oeb[1] O
io_oeb[20] O
io_oeb[21] O
io_oeb[22] O
io_oeb[23] O
io_oeb[24] O
io_oeb[25] O
io_oeb[26] O
io_oeb[27] O
io_oeb[28] O
io_oeb[29] O
io_oeb[2] O
io_oeb[30] O
io_oeb[31] O
io_oeb[32] O
io_oeb[33] O
io_oeb[34] O
io_oeb[35] O
io_oeb[36] O
io_oeb[37] O
io_oeb[3] O
io_oeb[4] O
io_oeb[5] O
io_oeb[6] O
io_oeb[7] O
io_oeb[8] O
io_oeb[9] O
io_out[0] O
io_out[10] O
io_out[11] O
io_out[12] O
io_out[13] O
io_out[14] O
io_out[15] O
io_out[16] O
io_out[17] O
io_out[18] O
io_out[19] O
io_out[1] O
io_out[20] O
io_out[21] O
io_out[22] O
io_out[23] O
io_out[24] O
io_out[25] O
io_out[26] O
io_out[27] O
io_out[28] O
io_out[29] O
io_out[2] O
io_out[30] O
io_out[31] O
io_out[32] O
io_out[33] O
io_out[34] O
io_out[35] O
io_out[36] O
io_out[37] O
io_out[3] O
io_out[4] O
io_out[5] O
io_out[6] O
io_out[7] O
io_out[8] O
io_out[9] O
la_data_in[0] I
la_data_in[10] I
la_data_in[11] I
la_data_in[12] I
la_data_in[13] I
la_data_in[14] I
la_data_in[15] I
la_data_in[16] I
la_data_in[17] I
la_data_in[18] I
la_data_in[19] I
la_data_in[1] I
la_data_in[20] I
la_data_in[21] I
la_data_in[22] I
la_data_in[23] I
la_data_in[24] I
la_data_in[25] I
la_data_in[26] I
la_data_in[27] I
la_data_in[28] I
la_data_in[29] I
la_data_in[2] I
la_data_in[30] I
la_data_in[31] I
la_data_in[32] I
la_data_in[33] I
la_data_in[34] I
la_data_in[35] I
la_data_in[36] I
la_data_in[37] I
la_data_in[38] I
la_data_in[39] I
la_data_in[3] I
la_data_in[40] I
la_data_in[41] I
la_data_in[42] I
la_data_in[43] I
la_data_in[44] I
la_data_in[45] I
la_data_in[46] I
la_data_in[47] I
la_data_in[48] I
la_data_in[49] I
la_data_in[4] I
la_data_in[50] I
la_data_in[51] I
la_data_in[52] I
la_data_in[53] I
la_data_in[54] I
la_data_in[55] I
la_data_in[56] I
la_data_in[57] I
la_data_in[58] I
la_data_in[59] I
la_data_in[5] I
la_data_in[60] I
la_data_in[61] I
la_data_in[62] I
la_data_in[63] I
la_data_in[6] I
la_data_in[7] I
la_data_in[8] I
la_data_in[9] I
la_data_out[0] O
la_data_out[10] O
la_data_out[11] O
la_data_out[12] O
la_data_out[13] O
la_data_out[14] O
la_data_out[15] O
la_data_out[16] O
la_data_out[17] O
la_data_out[18] O
la_data_out[19] O
la_data_out[1] O
la_data_out[20] O
la_data_out[21] O
la_data_out[22] O
la_data_out[23] O
la_data_out[24] O
la_data_out[25] O
la_data_out[26] O
la_data_out[27] O
la_data_out[28] O
la_data_out[29] O
la_data_out[2] O
la_data_out[30] O
la_data_out[31] O
la_data_out[32] O
la_data_out[33] O
la_data_out[34] O
la_data_out[35] O
la_data_out[36] O
la_data_out[37] O
la_data_out[38] O
la_data_out[39] O
la_data_out[3] O
la_data_out[40] O
la_data_out[41] O
la_data_out[42] O
la_data_out[43] O
la_data_out[44] O
la_data_out[45] O
la_data_out[46] O
la_data_out[47] O
la_data_out[48] O
la_data_out[49] O
la_data_out[4] O
la_data_out[50] O
la_data_out[51] O
la_data_out[52] O
la_data_out[53] O
la_data_out[54] O
la_data_out[55] O
la_data_out[56] O
la_data_out[57] O
la_data_out[58] O
la_data_out[59] O
la_data_out[5] O
la_data_out[60] O
la_data_out[61] O
la_data_out[62] O
la_data_out[63] O
la_data_out[6] O
la_data_out[7] O
la_data_out[8] O
la_data_out[9] O
la_oenb[0] I
la_oenb[10] I
la_oenb[11] I
la_oenb[12] I
la_oenb[13] I
la_oenb[14] I
la_oenb[15] I
la_oenb[16] I
la_oenb[17] I
la_oenb[18] I
la_oenb[19] I
la_oenb[1] I
la_oenb[20] I
la_oenb[21] I
la_oenb[22] I
la_oenb[23] I
la_oenb[24] I
la_oenb[25] I
la_oenb[26] I
la_oenb[27] I
la_oenb[28] I
la_oenb[29] I
la_oenb[2] I
la_oenb[30] I
la_oenb[31] I
la_oenb[32] I
la_oenb[33] I
la_oenb[34] I
la_oenb[35] I
la_oenb[36] I
la_oenb[37] I
la_oenb[38] I
la_oenb[39] I
la_oenb[3] I
la_oenb[40] I
la_oenb[41] I
la_oenb[42] I
la_oenb[43] I
la_oenb[44] I
la_oenb[45] I
la_oenb[46] I
la_oenb[47] I
la_oenb[48] I
la_oenb[49] I
la_oenb[4] I
la_oenb[50] I
la_oenb[51] I
la_oenb[52] I
la_oenb[53] I
la_oenb[54] I
la_oenb[55] I
la_oenb[56] I
la_oenb[57] I
la_oenb[58] I
la_oenb[59] I
la_oenb[5] I
la_oenb[60] I
la_oenb[61] I
la_oenb[62] I
la_oenb[63] I
la_oenb[6] I
la_oenb[7] I
la_oenb[8] I
la_oenb[9] I
user_clock2 I
user_irq[0] O
user_irq[1] O
user_irq[2] O
wb_clk_i I
wb_rst_i I
wbs_ack_o O
wbs_adr_i[0] I
wbs_adr_i[10] I
wbs_adr_i[11] I
wbs_adr_i[12] I
wbs_adr_i[13] I
wbs_adr_i[14] I
wbs_adr_i[15] I
wbs_adr_i[16] I
wbs_adr_i[17] I
wbs_adr_i[18] I
wbs_adr_i[19] I
wbs_adr_i[1] I
wbs_adr_i[20] I
wbs_adr_i[21] I
wbs_adr_i[22] I
wbs_adr_i[23] I
wbs_adr_i[24] I
wbs_adr_i[25] I
wbs_adr_i[26] I
wbs_adr_i[27] I
wbs_adr_i[28] I
wbs_adr_i[29] I
wbs_adr_i[2] I
wbs_adr_i[30] I
wbs_adr_i[31] I
wbs_adr_i[3] I
wbs_adr_i[4] I
wbs_adr_i[5] I
wbs_adr_i[6] I
wbs_adr_i[7] I
wbs_adr_i[8] I
wbs_adr_i[9] I
wbs_cyc_i I
wbs_dat_i[0] I
wbs_dat_i[10] I
wbs_dat_i[11] I
wbs_dat_i[12] I
wbs_dat_i[13] I
wbs_dat_i[14] I
wbs_dat_i[15] I
wbs_dat_i[16] I
wbs_dat_i[17] I
wbs_dat_i[18] I
wbs_dat_i[19] I
wbs_dat_i[1] I
wbs_dat_i[20] I
wbs_dat_i[21] I
wbs_dat_i[22] I
wbs_dat_i[23] I
wbs_dat_i[24] I
wbs_dat_i[25] I
wbs_dat_i[26] I
wbs_dat_i[27] I
wbs_dat_i[28] I
wbs_dat_i[29] I
wbs_dat_i[2] I
wbs_dat_i[30] I
wbs_dat_i[31] I
wbs_dat_i[3] I
wbs_dat_i[4] I
wbs_dat_i[5] I
wbs_dat_i[6] I
wbs_dat_i[7] I
wbs_dat_i[8] I
wbs_dat_i[9] I
wbs_dat_o[0] O
wbs_dat_o[10] O
wbs_dat_o[11] O
wbs_dat_o[12] O
wbs_dat_o[13] O
wbs_dat_o[14] O
wbs_dat_o[15] O
wbs_dat_o[16] O
wbs_dat_o[17] O
wbs_dat_o[18] O
wbs_dat_o[19] O
wbs_dat_o[1] O
wbs_dat_o[20] O
wbs_dat_o[21] O
wbs_dat_o[22] O
wbs_dat_o[23] O
wbs_dat_o[24] O
wbs_dat_o[25] O
wbs_dat_o[26] O
wbs_dat_o[27] O
wbs_dat_o[28] O
wbs_dat_o[29] O
wbs_dat_o[2] O
wbs_dat_o[30] O
wbs_dat_o[31] O
wbs_dat_o[3] O
wbs_dat_o[4] O
wbs_dat_o[5] O
wbs_dat_o[6] O
wbs_dat_o[7] O
wbs_dat_o[8] O
wbs_dat_o[9] O
wbs_sel_i[0] I
wbs_sel_i[1] I
wbs_sel_i[2] I
wbs_sel_i[3] I
wbs_stb_i I
wbs_we_i I

*D_NET *1 0.511209
*CONN
*P io_in[0] I
*I *419:io_in[0] I *D system_wrapper
*CAP
1 io_in[0] 0.000637361
2 *419:io_in[0] 0.00191672
3 *1:14 0.011924
4 *1:13 0.0100072
5 *1:11 0.0863394
6 *1:10 0.0863394
7 *1:8 0.00660942
8 *1:7 0.00724678
9 *1:14 *4:16 0.0129503
10 *1:14 *185:13 0.122322
11 *1:14 *361:11 0.164917
*RES
1 io_in[0] *1:7 11.025 
2 *1:7 *1:8 65.97 
3 *1:8 *1:10 4.5 
4 *1:10 *1:11 814.41 
5 *1:11 *1:13 4.5 
6 *1:13 *1:14 290.43 
7 *1:14 *419:io_in[0] 32.49 
*END

*D_NET *2 0.398587
*CONN
*P io_in[10] I
*I *419:io_in[10] I *D system_wrapper
*CAP
1 io_in[10] 0.000649905
2 *419:io_in[10] 0.000895832
3 *2:14 0.00619548
4 *2:13 0.00529965
5 *2:11 0.0824086
6 *2:10 0.0824086
7 *2:8 0.0102758
8 *2:7 0.0109257
9 *419:io_in[10] *220:10 0.000360785
10 *2:8 io_out[7] 2.04586e-05
11 *2:8 *43:21 0.105996
12 *2:14 *6:12 0.0765355
13 *2:14 *192:13 0.0154053
14 *2:14 *220:11 0.000797884
15 *2:14 *285:19 0.000411729
*RES
1 io_in[10] *2:7 10.845 
2 *2:7 *2:8 171.63 
3 *2:8 *2:10 4.5 
4 *2:10 *2:11 806.49 
5 *2:11 *2:13 4.5 
6 *2:13 *2:14 112.23 
7 *2:14 *419:io_in[10] 23.94 
*END

*D_NET *3 0.290246
*CONN
*P io_in[11] I
*I *419:io_in[11] I *D system_wrapper
*CAP
1 io_in[11] 0.000280649
2 *419:io_in[11] 0.00235595
3 *3:16 0.0383483
4 *3:15 0.0359923
5 *3:13 0.0754945
6 *3:11 0.0757752
7 *419:io_in[11] *151:31 0.000480042
8 *3:16 *279:11 0.0405694
9 *3:16 *385:12 0.0209496
*RES
1 io_in[11] *3:11 2.655 
2 *3:11 *3:13 823.41 
3 *3:13 *3:15 4.5 
4 *3:15 *3:16 421.29 
5 *3:16 *419:io_in[11] 36.63 
*END

*D_NET *4 0.278841
*CONN
*P io_in[12] I
*I *419:io_in[12] I *D system_wrapper
*CAP
1 io_in[12] 0.000215438
2 *419:io_in[12] 0.00196238
3 *4:16 0.0416513
4 *4:15 0.039689
5 *4:13 0.075213
6 *4:11 0.0754284
7 *419:io_in[12] *419:wbs_dat_i[22] 0
8 *4:16 *145:21 0.0243662
9 *4:16 *185:13 0.00736509
10 *1:14 *4:16 0.0129503
*RES
1 io_in[12] *4:11 2.115 
2 *4:11 *4:13 820.71 
3 *4:13 *4:15 4.5 
4 *4:15 *4:16 432.09 
5 *4:16 *419:io_in[12] 32.85 
*END

*D_NET *5 0.413829
*CONN
*P io_in[13] I
*I *419:io_in[13] I *D system_wrapper
*CAP
1 io_in[13] 0.000145659
2 *419:io_in[13] 0.00189624
3 *5:16 0.0443904
4 *5:15 0.0424942
5 *5:13 0.0756577
6 *5:11 0.0758033
7 *419:io_in[13] *419:io_in[31] 0
8 *419:io_in[13] *419:la_data_in[32] 0.00529259
9 *5:16 *75:13 0.163935
10 *5:16 *292:11 0.00421447
*RES
1 io_in[13] *5:11 1.575 
2 *5:11 *5:13 826.11 
3 *5:13 *5:15 4.5 
4 *5:15 *5:16 537.03 
5 *5:16 *419:io_in[13] 38.43 
*END

*D_NET *6 0.353063
*CONN
*P io_in[14] I
*I *419:io_in[14] I *D system_wrapper
*CAP
1 io_in[14] 0.0039856
2 *419:io_in[14] 0.000670347
3 *6:12 0.0544179
4 *6:11 0.0537475
5 *6:9 0.0704541
6 *6:7 0.0744397
7 *419:io_in[14] *103:9 0.000187842
8 *419:io_in[14] *103:10 0.00217583
9 *6:12 *220:11 0.0164487
10 *2:14 *6:12 0.0765355
*RES
1 io_in[14] *6:7 43.425 
2 *6:7 *6:9 769.68 
3 *6:9 *6:11 4.5 
4 *6:11 *6:12 612.63 
5 *6:12 *419:io_in[14] 23.76 
*END

*D_NET *7 0.232532
*CONN
*P io_in[15] I
*I *419:io_in[15] I *D system_wrapper
*CAP
1 io_in[15] 0.00433039
2 *419:io_in[15] 0.000504577
3 *7:15 0.00773512
4 *7:14 0.00723055
5 *7:12 0.0628108
6 *7:11 0.0628108
7 *7:9 0.0406852
8 *7:7 0.0450156
9 *419:io_in[15] *207:14 0.00018773
10 *419:io_in[15] *227:14 0.000371723
11 *419:io_in[15] *385:9 0.000849652
12 *7:15 *419:la_data_in[39] 0
13 *7:15 *223:14 0
*RES
1 io_in[15] *7:7 43.245 
2 *7:7 *7:9 406.44 
3 *7:9 *7:11 4.5 
4 *7:11 *7:12 684.63 
5 *7:12 *7:14 4.5 
6 *7:14 *7:15 68.85 
7 *7:15 *419:io_in[15] 24.84 
*END

*D_NET *8 0.235237
*CONN
*P io_in[16] I
*I *419:io_in[16] I *D system_wrapper
*CAP
1 io_in[16] 0.000164983
2 *419:io_in[16] 0.00213861
3 *8:19 0.00989906
4 *8:18 0.00776045
5 *8:16 0.0433086
6 *8:15 0.0433086
7 *8:13 0.0575265
8 *8:11 0.0576914
9 *8:16 *409:7 0.00491141
10 *8:19 *67:8 0.00852739
11 *8:19 *89:8 0
*RES
1 io_in[16] *8:11 1.935 
2 *8:11 *8:13 573.57 
3 *8:13 *8:15 4.5 
4 *8:15 *8:16 465.93 
5 *8:16 *8:18 4.5 
6 *8:18 *8:19 111.15 
7 *8:19 *419:io_in[16] 22.725 
*END

*D_NET *9 0.185712
*CONN
*P io_in[17] I
*I *419:io_in[17] I *D system_wrapper
*CAP
1 io_in[17] 0.000291323
2 *419:io_in[17] 0.00146365
3 *9:16 0.0341588
4 *9:15 0.0326951
5 *9:13 0.0529998
6 *9:11 0.0532911
7 *419:io_in[17] *419:la_data_in[10] 0.000119677
8 *419:io_in[17] *402:18 0.00325291
9 *9:16 *419:wbs_adr_i[29] 0.00743964
10 *9:16 *76:7 0
*RES
1 io_in[17] *9:11 3.015 
2 *9:11 *9:13 527.67 
3 *9:13 *9:15 4.5 
4 *9:15 *9:16 364.23 
5 *9:16 *419:io_in[17] 25.695 
*END

*D_NET *10 0.171705
*CONN
*P io_in[18] I
*I *419:io_in[18] I *D system_wrapper
*CAP
1 io_in[18] 0.000104982
2 *419:io_in[18] 0.00022388
3 *10:19 0.00549623
4 *10:18 0.00527235
5 *10:16 0.0312892
6 *10:15 0.0312892
7 *10:13 0.0468988
8 *10:11 0.0470037
9 *419:io_in[18] *137:34 0.000559527
10 *419:io_in[18] *197:14 0.000559527
11 *10:19 *419:wbs_adr_i[0] 0.00300741
*RES
1 io_in[18] *10:11 1.395 
2 *10:11 *10:13 468.27 
3 *10:13 *10:15 4.5 
4 *10:15 *10:16 340.11 
5 *10:16 *10:18 4.5 
6 *10:18 *10:19 51.21 
7 *10:19 *419:io_in[18] 21.78 
*END

*D_NET *11 0.217352
*CONN
*P io_in[19] I
*I *419:io_in[19] I *D system_wrapper
*CAP
1 io_in[19] 0.000224243
2 *419:io_in[19] 0.00816912
3 *11:21 0.00816912
4 *11:19 0.0565423
5 *11:18 0.0565423
6 *11:16 0.00510545
7 *11:15 0.00510545
8 *11:13 0.0171554
9 *11:11 0.0173796
10 *419:io_in[19] *191:11 0.0429591
11 *11:19 *246:9 0
*RES
1 io_in[19] *11:11 2.475 
2 *11:11 *11:13 171.27 
3 *11:13 *11:15 4.5 
4 *11:15 *11:16 55.53 
5 *11:16 *11:18 4.5 
6 *11:18 *11:19 558.81 
7 *11:19 *11:21 4.5 
8 *11:21 *419:io_in[19] 107.325 
*END

*D_NET *12 0.506865
*CONN
*P io_in[1] I
*I *419:io_in[1] I *D system_wrapper
*CAP
1 io_in[1] 0.000280649
2 *419:io_in[1] 0.00136656
3 *12:19 0.046189
4 *12:18 0.0448224
5 *12:16 0.038267
6 *12:15 0.038267
7 *12:13 0.00880436
8 *12:11 0.00908501
9 *419:io_in[1] *419:wbs_adr_i[24] 0
10 *419:io_in[1] *48:10 0
11 *419:io_in[1] *225:14 0.00167858
12 *419:io_in[1] *287:14 0.00018884
13 *12:16 la_data_out[57] 0
14 *12:19 *29:19 0
15 *12:19 *135:16 0.298352
16 *12:19 *147:14 0.0195627
17 *12:19 *254:14 0
*RES
1 io_in[1] *12:11 2.655 
2 *12:11 *12:13 92.97 
3 *12:13 *12:15 4.5 
4 *12:15 *12:16 380.79 
5 *12:16 *12:18 4.5 
6 *12:18 *12:19 700.47 
7 *12:19 *419:io_in[1] 36.27 
*END

*D_NET *13 0.125009
*CONN
*P io_in[20] I
*I *419:io_in[20] I *D system_wrapper
*CAP
1 io_in[20] 0.0014748
2 *419:io_in[20] 0.00015224
3 *13:11 0.0509388
4 *13:10 0.0507866
5 *13:8 0.00916737
6 *13:7 0.0106422
7 *419:io_in[20] *72:15 0.00022951
8 *419:io_in[20] *137:34 0.00105689
9 *419:io_in[20] *197:14 0.000211377
10 *13:11 *419:wbs_dat_i[7] 0.000349075
*RES
1 io_in[20] *13:7 19.125 
2 *13:7 *13:8 100.17 
3 *13:8 *13:10 4.5 
4 *13:10 *13:11 504.99 
5 *13:11 *419:io_in[20] 20.7 
*END

*D_NET *14 0.142784
*CONN
*P io_in[21] I
*I *419:io_in[21] I *D system_wrapper
*CAP
1 io_in[21] 0.00123345
2 *419:io_in[21] 0.000144437
3 *14:11 0.0697709
4 *14:10 0.0708599
5 *419:io_in[21] *144:22 0
6 *14:10 *53:11 9.09107e-05
7 *14:11 *419:wbs_adr_i[4] 0.000271215
8 *14:11 *231:10 0.000413209
*RES
1 io_in[21] *14:10 20.295 
2 *14:10 *14:11 728.91 
3 *14:11 *419:io_in[21] 19.4948 
*END

*D_NET *15 0.233905
*CONN
*P io_in[22] I
*I *419:io_in[22] I *D system_wrapper
*CAP
1 io_in[22] 0.000290594
2 *419:io_in[22] 0.00379569
3 *15:16 0.0118986
4 *15:15 0.00810289
5 *15:13 0.0487629
6 *15:11 0.0490535
7 *419:io_in[22] *419:la_oenb[2] 0.0022709
8 *15:16 *16:16 0.10973
*RES
1 io_in[22] *15:11 3.015 
2 *15:11 *15:13 486.81 
3 *15:13 *15:15 4.5 
4 *15:15 *15:16 158.85 
5 *15:16 *419:io_in[22] 39.915 
*END

*D_NET *16 0.40476
*CONN
*P io_in[23] I
*I *419:io_in[23] I *D system_wrapper
*CAP
1 io_in[23] 0.000104982
2 *419:io_in[23] 0.000891741
3 *16:19 0.00667691
4 *16:18 0.00578517
5 *16:16 0.00948248
6 *16:15 0.00948248
7 *16:13 0.0486998
8 *16:11 0.0488048
9 *16:13 *21:16 0
10 *16:16 *112:16 0.157103
11 *16:19 *349:19 0.00153439
12 *16:19 *358:19 0.00646492
13 *15:16 *16:16 0.10973
*RES
1 io_in[23] *16:11 1.395 
2 *16:11 *16:13 486.99 
3 *16:13 *16:15 4.5 
4 *16:15 *16:16 272.79 
5 *16:16 *16:18 4.5 
6 *16:18 *16:19 60.57 
7 *16:19 *419:io_in[23] 13.365 
*END

*D_NET *17 0.329134
*CONN
*P io_in[24] I
*I *419:io_in[24] I *D system_wrapper
*CAP
1 io_in[24] 0.00360253
2 *419:io_in[24] 0.000712148
3 *17:11 0.0167885
4 *17:10 0.0160764
5 *17:8 0.0733224
6 *17:7 0.0769249
7 *419:io_in[24] *419:io_in[32] 4.47532e-05
8 *419:io_in[24] *419:wbs_dat_i[2] 0.00020254
9 *17:11 *419:la_data_in[58] 0.000124339
10 *17:11 *419:la_data_in[62] 0.000932545
11 *17:11 *419:la_oenb[7] 0.000969847
12 *17:11 *419:wbs_adr_i[13] 0.000670915
13 *17:11 *66:18 0.0043726
14 *17:11 *71:16 0
15 *17:11 *83:17 0.0306497
16 *17:11 *149:20 0.000352295
17 *17:11 *150:22 0.000352295
18 *17:11 *189:13 0.00159569
19 *17:11 *236:13 0.000973991
20 *17:11 *328:16 0.0188581
21 *17:11 *338:25 0.00130556
22 *17:11 *359:8 0.00128484
23 *17:11 *394:16 0.0786445
24 *17:11 *401:13 0.000373018
*RES
1 io_in[24] *17:7 43.065 
2 *17:7 *17:8 732.15 
3 *17:8 *17:10 4.5 
4 *17:10 *17:11 291.33 
5 *17:11 *419:io_in[24] 20.8565 
*END

*D_NET *18 0.256941
*CONN
*P io_in[25] I
*I *419:io_in[25] I *D system_wrapper
*CAP
1 io_in[25] 0.000611329
2 *419:io_in[25] 0.000537037
3 *18:21 0.00983118
4 *18:20 0.00929414
5 *18:18 0.0410163
6 *18:17 0.0410163
7 *18:15 0.00404174
8 *18:8 0.0292092
9 *18:7 0.0257788
10 *18:15 io_oeb[28] 0.000310849
11 *18:21 *65:11 0.0952942
12 *18:21 *241:16 0
13 *18:21 *263:16 0
*RES
1 io_in[25] *18:7 10.665 
2 *18:7 *18:8 251.37 
3 *18:8 *18:15 48.15 
4 *18:15 *18:17 4.5 
5 *18:17 *18:18 409.41 
6 *18:18 *18:20 4.5 
7 *18:20 *18:21 137.97 
8 *18:21 *419:io_in[25] 18.1565 
*END

*D_NET *19 0.122946
*CONN
*P io_in[26] I
*I *419:io_in[26] I *D system_wrapper
*CAP
1 io_in[26] 0.00010158
2 *419:io_in[26] 0.00242554
3 *19:16 0.040692
4 *19:15 0.0382665
5 *19:13 0.011804
6 *19:11 0.0119055
7 *419:io_in[26] *419:wbs_stb_i 9.13122e-06
8 *419:io_in[26] *417:16 0.00743964
9 *19:16 *43:15 0.0103022
*RES
1 io_in[26] *19:11 1.215 
2 *19:11 *19:13 127.71 
3 *19:13 *19:15 4.5 
4 *19:15 *19:16 418.23 
5 *19:16 *419:io_in[26] 48.87 
*END

*D_NET *20 0.109009
*CONN
*P io_in[27] I
*I *419:io_in[27] I *D system_wrapper
*CAP
1 io_in[27] 0.000310538
2 *419:io_in[27] 0.000159586
3 *20:19 0.00866491
4 *20:18 0.00850533
5 *20:16 0.0378924
6 *20:15 0.0378924
7 *20:13 0.0076367
8 *20:11 0.00794724
9 *419:io_in[27] *419:la_data_in[33] 0
10 *20:19 *419:la_data_in[33] 0
*RES
1 io_in[27] *20:11 2.835 
2 *20:11 *20:13 73.71 
3 *20:13 *20:15 4.5 
4 *20:15 *20:16 378.09 
5 *20:16 *20:18 4.5 
6 *20:18 *20:19 86.31 
7 *20:19 *419:io_in[27] 10.8 
*END

*D_NET *21 0.130413
*CONN
*P io_in[28] I
*I *419:io_in[28] I *D system_wrapper
*CAP
1 io_in[28] 0.000167681
2 *419:io_in[28] 0.000187668
3 *21:19 0.00734917
4 *21:18 0.0071615
5 *21:16 0.0263532
6 *21:15 0.0263532
7 *21:13 0.00904648
8 *21:11 0.00921416
9 *419:io_in[28] *419:wbs_dat_i[10] 8.2181e-05
10 *21:16 *316:11 0.0444974
11 *16:13 *21:16 0
*RES
1 io_in[28] *21:11 1.755 
2 *21:11 *21:13 87.39 
3 *21:13 *21:15 4.5 
4 *21:15 *21:16 291.69 
5 *21:16 *21:18 4.5 
6 *21:18 *21:19 72.63 
7 *21:19 *419:io_in[28] 11.34 
*END

*D_NET *22 0.0844027
*CONN
*P io_in[29] I
*I *419:io_in[29] I *D system_wrapper
*CAP
1 io_in[29] 0.00919403
2 *419:io_in[29] 0.000243186
3 *22:11 0.00645788
4 *22:10 0.0062147
5 *22:8 0.0257488
6 *22:7 0.0257488
7 *22:5 0.00919403
8 *419:io_in[29] *419:la_oenb[28] 0.000793113
9 *22:11 *419:la_oenb[28] 0.000808096
*RES
1 io_in[29] *22:5 97.965 
2 *22:5 *22:7 4.5 
3 *22:7 *22:8 256.41 
4 *22:8 *22:10 4.5 
5 *22:10 *22:11 62.01 
6 *22:11 *419:io_in[29] 12.42 
*END

*D_NET *23 0.399118
*CONN
*P io_in[2] I
*I *419:io_in[2] I *D system_wrapper
*CAP
1 io_in[2] 0.00022183
2 *419:io_in[2] 3.13489e-05
3 *23:11 0.0252206
4 *23:10 0.0251893
5 *23:8 0.0193141
6 *23:7 0.0195359
7 *419:io_in[2] *240:5 0.000155424
8 *419:io_in[2] *257:12 0.000134701
9 *23:8 *39:8 0.0525786
10 *23:8 *40:8 0.0485482
11 *23:11 *73:14 0.0109108
12 *23:11 *139:16 0.0104445
13 *23:11 *225:14 0.0406719
14 *23:11 *240:5 0.00801982
15 *23:11 *257:12 0.138141
*RES
1 io_in[2] *23:7 6.345 
2 *23:7 *23:8 302.49 
3 *23:8 *23:10 4.5 
4 *23:10 *23:11 608.22 
5 *23:11 *419:io_in[2] 0.945 
*END

*D_NET *24 0.246653
*CONN
*P io_in[30] I
*I *419:io_in[30] I *D system_wrapper
*CAP
1 io_in[30] 0.000237175
2 *419:io_in[30] 0.00132423
3 *24:19 0.0057229
4 *24:18 0.00439867
5 *24:16 0.0327052
6 *24:15 0.0327052
7 *24:13 0.0104691
8 *24:11 0.0107063
9 *419:io_in[30] *79:10 0.000316085
10 *24:16 *378:15 0
11 *24:19 *419:wbs_adr_i[12] 0.00370872
12 *24:19 *26:11 0.00196871
13 *24:19 *95:11 0.0934404
14 *24:19 *109:11 0.0269195
15 *24:19 *286:16 0.00267415
16 *24:19 *358:16 0.010505
17 *24:19 *360:14 0.00885156
*RES
1 io_in[30] *24:11 2.295 
2 *24:11 *24:13 111.51 
3 *24:13 *24:15 4.5 
4 *24:15 *24:16 324.81 
5 *24:16 *24:18 4.5 
6 *24:18 *24:19 182.79 
7 *24:19 *419:io_in[30] 26.6165 
*END

*D_NET *25 0.0637994
*CONN
*P io_in[31] I
*I *419:io_in[31] I *D system_wrapper
*CAP
1 io_in[31] 0.00113819
2 *419:io_in[31] 0.000158033
3 *25:11 0.0147569
4 *25:10 0.0145988
5 *25:8 0.0160047
6 *25:7 0.0171429
7 *419:io_in[13] *419:io_in[31] 0
*RES
1 io_in[31] *25:7 16.065 
2 *25:7 *25:8 159.93 
3 *25:8 *25:10 4.5 
4 *25:10 *25:11 148.41 
5 *25:11 *419:io_in[31] 10.8 
*END

*D_NET *26 0.407523
*CONN
*P io_in[32] I
*I *419:io_in[32] I *D system_wrapper
*CAP
1 io_in[32] 0.000611329
2 *419:io_in[32] 0.00119939
3 *26:11 0.0155147
4 *26:10 0.0143153
5 *26:8 0.0145126
6 *26:7 0.015124
7 *419:io_in[32] *419:wbs_dat_i[2] 0.000368255
8 *419:io_in[32] *71:16 0.000177173
9 *419:io_in[32] *83:17 0.00354346
10 *419:io_in[32] *340:13 0.00313016
11 *419:io_in[32] *372:13 0.00288466
12 *26:8 io_out[33] 0.00104262
13 *26:8 *65:14 0.0454794
14 *26:8 *102:18 0.0154053
15 *26:11 *47:11 0.103264
16 *26:11 *95:11 0.117687
17 *26:11 *109:11 0.0510414
18 *26:11 *360:14 0.00020981
19 *26:11 *393:16 0
20 *26:11 *418:14 0
21 *419:io_in[24] *419:io_in[32] 4.47532e-05
22 *24:19 *26:11 0.00196871
*RES
1 io_in[32] *26:7 10.665 
2 *26:7 *26:8 188.91 
3 *26:8 *26:10 4.5 
4 *26:10 *26:11 323.01 
5 *26:11 *419:io_in[32] 40.4765 
*END

*D_NET *27 0.0497886
*CONN
*P io_in[33] I
*I *419:io_in[33] I *D system_wrapper
*CAP
1 io_in[33] 0.00207884
2 *419:io_in[33] 0.000155696
3 *27:19 0.0141509
4 *27:18 0.0139952
5 *27:16 0.00866449
6 *27:15 0.0107433
7 *419:io_in[33] *419:wbs_adr_i[14] 0
8 *27:19 *419:wbs_adr_i[14] 0
*RES
1 io_in[33] *27:15 25.965 
2 *27:15 *27:16 86.49 
3 *27:16 *27:18 4.5 
4 *27:18 *27:19 140.31 
5 *27:19 *419:io_in[33] 10.8 
*END

*D_NET *28 0.0606102
*CONN
*P io_in[34] I
*I *419:io_in[34] I *D system_wrapper
*CAP
1 io_in[34] 0.00442373
2 *419:io_in[34] 0.000158033
3 *28:11 0.0110997
4 *28:10 0.0109416
5 *28:8 0.0143155
6 *28:7 0.0143155
7 *28:5 0.00442373
8 *419:io_in[34] *419:la_data_in[35] 0
9 *28:5 *381:10 0.000932547
*RES
1 io_in[34] *28:5 46.665 
2 *28:5 *28:7 4.5 
3 *28:7 *28:8 143.01 
4 *28:8 *28:10 4.5 
5 *28:10 *28:11 113.31 
6 *28:11 *419:io_in[34] 10.8 
*END

*D_NET *29 0.212964
*CONN
*P io_in[35] I
*I *419:io_in[35] I *D system_wrapper
*CAP
1 io_in[35] 0.00236303
2 *419:io_in[35] 0.00111019
3 *29:19 0.02506
4 *29:18 0.0239498
5 *29:16 0.0258316
6 *29:15 0.0281946
7 *29:16 *314:5 0
8 *29:19 *111:16 0
9 *29:19 *135:16 0
10 *29:19 *159:14 0.00497357
11 *29:19 *192:16 0.00145056
12 *29:19 *254:14 0.100031
13 *12:19 *29:19 0
*RES
1 io_in[35] *29:15 29.205 
2 *29:15 *29:16 257.85 
3 *29:16 *29:18 4.5 
4 *29:18 *29:19 308.61 
5 *29:19 *419:io_in[35] 31.86 
*END

*D_NET *30 0.395006
*CONN
*P io_in[36] I
*I *419:io_in[36] I *D system_wrapper
*CAP
1 io_in[36] 0.00010158
2 *419:io_in[36] 0.00133421
3 *30:16 0.0120085
4 *30:15 0.0106743
5 *30:13 0.0341176
6 *30:11 0.0342192
7 *419:io_in[36] *419:wbs_dat_i[0] 0.000312398
8 *30:13 *356:14 0.00260179
9 *30:16 *336:19 0.100104
10 *30:16 *362:11 0.199532
*RES
1 io_in[36] *30:11 1.215 
2 *30:11 *30:13 366.93 
3 *30:13 *30:15 4.5 
4 *30:15 *30:16 292.59 
5 *30:16 *419:io_in[36] 18.945 
*END

*D_NET *31 0.379682
*CONN
*P io_in[37] I
*I *419:io_in[37] I *D system_wrapper
*CAP
1 io_in[37] 0.000310538
2 *419:io_in[37] 0.0026562
3 *31:16 0.015915
4 *31:15 0.0132588
5 *31:13 0.0365107
6 *31:11 0.0368212